   240
C240                                                                            
 C    -5.71840   3.54670  -1.61640     1   201     2     5
 C    -6.34670   2.37220  -1.41080     2   206     1     3
 C    -6.55090   2.23560  -0.08560     3   215     4     2
 C    -6.04800   3.32500   0.52810     4   211     3     5
 C    -5.53380   4.13590  -0.41800     5   207     4     1
 C    -0.39430   2.88180  -6.27270     6   235    10     7
 C    -1.72440   2.85710  -6.05370     7   203     8     6
 C    -2.04150   3.93100  -5.30510     8   202     9     7
 C    -0.90860   4.61770  -5.06330     9   210    10     8
 C     0.10920   3.97170  -5.66300    10   237     9     6
 C    -3.96610  -3.65340  -4.32840    11   231    15    12
 C    -4.98700  -3.00650  -3.73060    12   219    11    13
 C    -5.09980  -1.79360  -4.30890    13   205    14    12
 C    -4.15350  -1.69580  -5.26210    14   204    15    13
 C    -3.45430  -2.84620  -5.27730    15   233    14    11
 C    -4.77570  -3.73910   3.33300    16   227    20    17
 C    -5.47730  -2.58740   3.34390    17   217    18    16
 C    -6.09190  -2.46510   2.15020    18   216    19    17
 C    -5.77240  -3.54060   1.40570    19   220    18    20
 C    -4.95990  -4.32880   2.13500    20   229    19    16
 C    -1.69560   2.74760   6.11390    21   221    25    22
 C    -2.51160   3.53340   5.38260    22   213    23    21
 C    -3.64280   2.84320   5.13990    23   212    24    22
 C    -3.52420   1.63390   5.72030    24   218    25    23
 C    -2.32280   1.57490   6.32490    25   225    24    21
 C     1.01010   6.84650   0.17810    26   239    27    30
 C    -0.19600   6.90290  -0.42140    27   209    28    26
 C    -1.14330   6.80570   0.53070    28   208    27    29
 C    -0.52400   6.68440   1.72100    29   214    28    30
 C     0.80620   6.70990   1.50370    30   224    29    26
 C     5.71400  -3.54450   1.61530    31   195    32    35
 C     5.52730  -4.12910   0.41530    32   191    33    31
 C     6.04100  -3.31730  -0.52860    33   187    34    32
 C     6.54630  -2.23090   0.08500    34   181    33    35
 C     6.34270  -2.36950   1.40990    35   186    34    31
 C    -0.10580  -3.97210   5.66260    36   228    37    40
 C     0.91400  -4.61950   5.06690    37   197    38    36
 C     2.04630  -3.93330   5.31310    38   196    37    39
 C     1.72260  -2.85840   6.05940    39   200    40    38
 C     0.39380  -2.88350   6.27980    40   226    39    36
 C    -0.80600  -6.70760  -1.50370    41   232    42    45
 C     0.52410  -6.68290  -1.72170    42   193    43    41
 C     1.14070  -6.80200  -0.52900    43   192    44    42
 C     0.19530  -6.90500   0.42440    44   198    43    45
 C    -1.00900  -6.84530  -0.17810    45   230    44    41
 C     2.32130  -1.57770  -6.32060    46   236    50    47
 C     3.52590  -1.63620  -5.71820    47   189    48    46
 C     3.64160  -2.84850  -5.14270    48   188    49    47
 C     2.51290  -3.53960  -5.39000    49   194    48    50
 C     1.69580  -2.75380  -6.11910    50   234    46    49
 C     4.96180   4.32490  -2.13230    51   240    52    55
 C     5.77830   3.53760  -1.40670    52   183    53    51
 C     6.09920   2.46490  -2.15410    53   182    52    54
 C     5.47970   2.58840  -3.34500    54   190    53    55
 C     4.77720   3.73960  -3.33270    55   238    51    54
 C     3.45500   2.84620   5.27050    56   222    60    57
 C     4.15600   1.69520   5.25870    57   199    58    56
 C     5.10460   1.79540   4.30780    58   185    57    59
 C     4.98870   3.00800   3.73090    59   184    58    60
 C     3.96980   3.65810   4.32790    60   223    56    59
 C     6.22150   2.29950   1.89500    61    66   184    62
 C     6.34330   1.01180   2.51090    62    63   185    61
 C     6.67330  -0.09690   1.73890    63    62   186    64
 C     6.89040   0.04920   0.33060    64    65   181    63
 C     6.77190   1.30100  -0.26280    65    64   182    66
 C     6.43230   2.44350   0.52920    66    61   183    65
 C     5.76840   0.32550  -3.77530    67    72   190    68
 C     6.42550   0.19560  -2.51020    68    69   182    67
 C     6.54360  -1.05480  -1.91480    69    68   181    70
 C     6.00770  -2.21070  -2.56910    70    71   187    69
 C     5.37060  -2.08260  -3.79710    71    70   188    72
 C     5.24610  -0.79580  -4.41070    72    67   189    71
 C     2.99260  -5.02130  -3.66750    73    78   194    74
 C     4.19490  -4.28700  -3.40930    74    75   188    73
 C     4.83060  -4.41520  -2.17960    75    74   187    76
 C     4.28650  -5.27550  -1.17340    76    77   191    75
 C     3.11950  -5.98650  -1.42970    77    76   192    78
 C     2.46170  -5.85810  -2.69360    78    73   193    77
 C     1.73570  -6.34990   2.07000    79    84   198    80
 C     2.74110  -6.24340   1.05620    80    81   192    79
 C     3.90790  -5.53240   1.31240    81    80   191    82
 C     4.10270  -4.90790   2.58480    82    83   195    81
 C     3.12580  -5.01280   3.56730    83    82   196    84
 C     1.92230  -5.74310   3.30760    84    79   197    83
 C     3.73100  -1.82800   5.51030    85    90   200    86
 C     4.07020  -2.96900   4.71620    86    87   196    85
 C     5.04610  -2.86480   3.73210    87    86   195    88
 C     5.71200  -1.61620   3.51370    88    89   186    87
 C     5.38050  -0.50940   4.28700    89    88   185    90
 C     4.37450  -0.61340   5.29970    90    85   199    89
 C    -4.37750   0.61490  -5.29610    91    96   204    92
 C    -5.38260   0.50790  -4.28300    92    93   205    91
 C    -5.71240   1.61690  -3.51110    93    92   206    94
 C    -5.04500   2.86530  -3.72990    94    95   201    93
 C    -4.06820   2.96490  -4.71470    95    94   202    96
 C    -3.72760   1.82510  -5.51000    96    91   203    95
 C    -1.92570   5.74040  -3.30420    97   102   210    98
 C    -3.12910   5.01000  -3.56180    98    99   202    97
 C    -4.10480   4.90990  -2.57920    99    98   201   100
 C    -3.90850   5.53380  -1.30680   100   101   207    99
 C    -2.73900   6.24320  -1.05540   101   100   208   102
 C    -1.73150   6.34890  -2.06880   102    97   209   101
 C    -2.46390   5.85530   2.69230   103   108   214   104
 C    -3.12290   5.98580   1.42790   104   105   208   103
 C    -4.29040   5.27600   1.17780   105   104   207   106
 C    -4.83540   4.41300   2.18080   106   107   211   105
 C    -4.19420   4.28580   3.40810   107   106   212   108
 C    -2.99060   5.01780   3.66790   108   103   213   107
 C    -5.24670   0.79800   4.40770   109   114   218   110
 C    -5.37380   2.08430   3.79110   110   111   212   109
 C    -6.01420   2.21020   2.56490   111   110   211   112
 C    -6.54730   1.05420   1.91190   112   113   215   111
 C    -6.42410  -0.19500   2.51070   113   112   216   114
 C    -5.76610  -0.32650   3.77520   114   109   217   113
 C    -6.43110  -2.44060  -0.52990   115   120   220   116
 C    -6.77150  -1.29650   0.26110   116   117   216   115
 C    -6.89370  -0.04700  -0.33280   117   116   215   118
 C    -6.67710   0.09470  -1.74050   118   119   206   117
 C    -6.34610  -1.01240  -2.51140   119   118   205   120
 C    -6.22140  -2.29970  -1.89740   120   115   219   119
 C     1.50500   4.09810   5.34550   121   126   222   122
 C     2.04800   4.96050   4.34030   122   123   223   121
 C     1.20720   5.77210   3.58810   123   122   224   124
 C    -0.20570   5.74440   3.81970   124   125   214   123
 C    -0.73110   4.90600   4.79680   125   124   213   126
 C     0.13370   4.06950   5.57140   126   121   221   125
 C     2.46300   0.60100   6.41910   127   132   199   128
 C     1.72060   1.82500   6.43030   128   129   222   127
 C     0.34970   1.79650   6.65660   129   128   221   130
 C    -0.31560   0.54820   6.87560   130   131   225   129
 C     0.40590  -0.63910   6.86310   131   130   226   132
 C     1.81880  -0.61170   6.63110   132   127   200   131
 C    -2.25170  -3.08490   5.75150   133   138   228   134
 C    -1.71860  -1.92710   6.40420   134   135   226   133
 C    -2.44020  -0.74030   6.41700   135   134   225   136
 C    -3.71930  -0.67980   5.77590   136   137   218   135
 C    -4.23870  -1.80220   5.14270   137   136   217   138
 C    -3.49300  -3.02480   5.12970   138   133   227   137
 C    -0.57110  -5.79010   3.71320   139   144   197   140
 C    -1.65180  -5.09930   4.34930   140   141   228   139
 C    -2.89310  -5.04050   3.72640   141   140   227   142
 C    -3.09040  -5.66470   2.45330   142   143   229   141
 C    -2.03820  -6.33380   1.83790   143   142   230   144
 C    -0.75900  -6.39770   2.47820   144   139   198   143
 C    -2.98250  -5.95830  -1.80030   145   150   232   146
 C    -3.20020  -6.10400  -0.39330   146   147   230   145
 C    -4.25160  -5.43490   0.21990   147   146   229   148
 C    -5.11720  -4.59810  -0.55310   148   149   220   147
 C    -4.90580  -4.45600  -1.91990   149   148   219   150
 C    -3.82220  -5.14540  -2.55420   150   145   231   149
 C     0.20560  -5.74570  -3.82230   151   156   193   152
 C    -1.20750  -5.77070  -3.59100   152   153   232   151
 C    -2.04650  -4.95820  -4.34510   153   152   231   154
 C    -1.50320  -4.09670  -5.35100   154   155   233   153
 C    -0.13130  -4.07570  -5.57330   155   154   234   156
 C     0.73600  -4.90990  -4.79870   156   151   194   155
 C     0.31510  -0.55340  -6.87440   157   162   236   158
 C    -0.35070  -1.80190  -6.65680   158   159   234   157
 C    -1.72230  -1.82310  -6.43430   159   158   233   160
 C    -2.46520  -0.60010  -6.42070   160   161   204   159
 C    -1.81850   0.61060  -6.63110   161   160   203   162
 C    -0.40580   0.63590  -6.86150   162   157   235   161
 C     3.71730   0.68080  -5.77540   163   168   189   164
 C     2.43790   0.74100  -6.41480   164   165   236   163
 C     1.71730   1.92950  -6.40180   165   164   235   166
 C     2.25260   3.08590  -5.74960   166   167   237   165
 C     3.49410   3.02540  -5.12880   167   166   238   168
 C     4.23870   1.80250  -5.14240   168   163   190   167
 C     3.09170   5.66390  -2.45320   169   174   240   170
 C     2.89410   5.03890  -3.72650   170   171   238   169
 C     1.65130   5.10040  -4.34710   171   170   237   172
 C     0.57020   5.79070  -3.71030   172   173   210   171
 C     0.76310   6.39830  -2.47650   173   172   209   174
 C     2.04110   6.33460  -1.83670   174   169   239   173
 C     3.82530   5.14780   2.55420   175   180   223   176
 C     4.90740   4.45900   1.91690   176   177   184   175
 C     5.11860   4.60010   0.55090   177   176   183   178
 C     4.25030   5.43740  -0.22000   178   179   240   177
 C     3.20110   6.10720   0.39670   179   178   239   180
 C     2.98370   5.96090   1.80330   180   175   224   179
 C     6.80240  -1.06610  -0.52910   181    34    69    64
 C     6.57660   1.31140  -1.66150   182    53    68    65
 C     5.89630   3.60230  -0.07090   183    52   177    66
 C     5.49490   3.33110   2.52990   184    59   176    61
 C     5.74150   0.74890   3.76000   185    58    89    62
 C     6.36910  -1.35850   2.29300   186    35    88    63
 C     5.72990  -3.38420  -1.83370   187    33    75    70
 C     4.51810  -3.14410  -4.16960   188    48    74    71
 C     4.26810  -0.56250  -5.40060   189    47   163    72
 C     5.25890   1.57360  -4.19630   190    54   168    67
 C     4.63920  -5.10940   0.18260   191    32    81    76
 C     2.41980  -6.46160  -0.29940   192    43    80    77
 C     1.10180  -6.20450  -2.83510   193    42   151    78
 C     2.11040  -4.61290  -4.69170   194    49   156    73
 C     5.03460  -3.85750   2.73050   195    31    87    82
 C     3.17810  -4.05450   4.60270   196    38    86    83
 C     0.76380  -5.52010   4.08180   197    37   139    84
 C     0.40400  -6.67580   1.73070   198    44   144    79
 C     3.72430   0.53920   5.79030   199    57   127    90
 C     2.49660  -1.76830   6.19360   200    39   132    85
 C    -5.03480   3.85980  -2.72870   201     1    99    94
 C    -3.17580   4.05300  -4.59710   202     8    98    95
 C    -2.49480   1.76650  -6.19310   203     7   161    96
 C    -3.72640  -0.53700  -5.79010   204    14   160    91
 C    -5.74310  -0.75120  -3.75850   205    13   119    92
 C    -6.37250   1.35810  -2.29080   206     2   118    93
 C    -4.64300   5.11170  -0.17830   207     5   105   100
 C    -2.42020   6.46280   0.30140   208    28   104   101
 C    -0.40100   6.67510  -1.72920   209    27   173   102
 C    -0.76520   5.51870  -4.07760   210     9   172    97
 C    -5.73680   3.38440   1.83310   211     4   111   106
 C    -4.51900   3.14180   4.16740   212    23   110   107
 C    -2.10610   4.60910   4.68840   213    22   125   108
 C    -1.10270   6.20340   2.83290   214    29   124   103
 C    -6.80670   1.06760   0.52530   215     3   117   112
 C    -6.57320  -1.31130   1.65830   216    18   116   113
 C    -5.25800  -1.57360   4.19570   217    17   137   114
 C    -4.26980   0.56400   5.39930   218    24   136   109
 C    -5.49470  -3.33010  -2.53080   219    12   149   120
 C    -5.89430  -3.59960   0.06960   220    19   148   115
 C    -0.37200   2.93570   6.24140   221    21   126   129
 C     2.23520   2.98440   5.81460   222    56   128   121
 C     3.32900   4.71270   3.80030   223    60   175   122
 C     1.72750   6.25850   2.37010   224    30   180   123
 C    -1.70970   0.43640   6.68250   225    25   135   130
 C    -0.33510  -1.82270   6.65880   226    40   134   131
 C    -3.76470  -4.02310   4.16990   227    16   141   138
 C    -1.40170  -4.13930   5.35180   228    36   140   133
 C    -4.15950  -5.27530   1.61890   229    20   142   147
 C    -2.15890  -6.54860   0.44830   230    45   146   143
 C    -3.32510  -4.71030  -3.80150   231    11   153   150
 C    -1.72590  -6.25540  -2.37180   232    41   152   145
 C    -2.23470  -2.98480  -5.81940   233    15   159   154
 C     0.37250  -2.93990  -6.24430   234    50   158   155
 C     0.33370   1.81980  -6.65560   235     6   165   162
 C     1.70890  -0.43690  -6.67910   236    46   164   157
 C     1.40300   4.14040  -5.35000   237    10   171   166
 C     3.76640   4.02360  -4.16930   238    55   170   167
 C     2.16110   6.55020  -0.44770   239    26   174   179
 C     4.16100   5.27410  -1.61870   240    51   178   169
